Version 4
SHEET 1 1616 680
WIRE 224 -128 224 -160
WIRE 224 -16 224 -48
WIRE 224 112 224 48
WIRE 112 192 -48 192
WIRE 176 192 112 192
WIRE 112 240 112 192
WIRE 224 240 224 208
WIRE 224 240 192 240
WIRE 224 288 224 240
FLAG 224 288 0
FLAG 224 -240 0
FLAG -128 192 0
SYMBOL nmos 176 112 R0
SYMATTR InstName MOSFET1
SYMATTR Value Si2316DS
SYMBOL voltage 224 -144 R180
WINDOW 0 24 96 Left 2
WINDOW 3 24 16 Left 2
SYMATTR InstName Vcc
SYMATTR Value 12
SYMBOL res 208 -144 R0
SYMATTR InstName R1
SYMATTR Value 50
SYMBOL Misc\\signal -32 192 R90
WINDOW 0 -32 56 VBottom 2
WINDOW 3 32 56 VTop 2
WINDOW 123 0 0 Left 0
WINDOW 39 0 0 Left 0
SYMATTR InstName Arduino-PWM
SYMATTR Value PULSE(0 5 0 0 0 0.075 0.1)
SYMBOL res 208 224 R90
WINDOW 0 0 56 VBottom 2
WINDOW 3 32 56 VTop 2
SYMATTR InstName Rg
SYMATTR Value 10k
SYMBOL LED 208 -16 R0
SYMATTR InstName LED
SYMATTR Value LUW-W5AP
TEXT -144 312 Left 2 !.tran 1
TEXT 384 -80 Left 2 ;R1 determines current through LED\n \nCould use multiple LEDs in series
